&setup_nml
    days_per_year  = 365
  , use_leap_years = .true.
  , year_init      = CICEYEARSTART
  , istep0         = CICESTARTSTEP
  , dt             = CICEDELTAT
  , npt            = CICENPT
  , ndtd           = 1
  , runtype        = CICERUNTYPE
  , ice_ic         = CICEIC
  , ice_ic_file    = CICEMASKICFILE
  , restart        = CICEREST
  , restart_ext    = .false.
  , use_restart_time = CICERSTTIME
  , restart_format = 'nc'
  , lcdf64         = .false.
  , restart_dir    = '<cicedir>/rundir/restart/'
  , restart_file   = 'iced'
  , pointer_file   = '<cicedir>/rundir/restart/ice.restart_file'
  , dumpfreq       = 'd'
  , dumpfreq_n     = 90
  , dump_last      = .false.
  , bfbflag        = .false.
  , diagfreq       = 35064
  , diag_type      = 'stdout'
  , diag_file      = 'ice_diag.d'
  , print_global   = .false.
  , print_points   = .false.
  , latpnt(1)      =  90.
  , lonpnt(1)      =   0.
  , latpnt(2)      =  80.
  , lonpnt(2)      = -10.
  , dbug           = .false.
  , histfreq       = 'd','x','x','x','x'
  , histfreq_n     =  5 , 1 , 2 , 1 , 1
  , hist_avg       = .true.
  , history_dir    = '<cicedir>/rundir/history/'
  , history_file   = 'iceh'
  , write_ic       = .false.
  , incond_dir     = '<cicedir>/rundir/history/'
  , incond_file    = 'iceh_ic'
/

&grid_nml
    grid_format  = 'nc'
  , grid_type    = 'rectangular'
  , grid_file    = '<cicedir>/rundir/cice.grid.nc'
  , kmt_file     = '<cicedir>/rundir/cice.kmt.nc'
  , gridcpl_file = 'unknown_gridcpl_file'
  , kcatbound    = 0
/

&domain_nml
    nprocs = <ntask>
  , processor_shape   = 'slenderX1'
  , distribution_type = 'cartesian'
  , distribution_wght = 'latitude'
  , ew_boundary_type  = 'cyclic'
  , ns_boundary_type  = 'open'
  , maskhalo_dyn      = .true.
  , maskhalo_remap    = .true.
  , maskhalo_bound    = .true.
/

&tracer_nml
    tr_iage      = .true.
  , restart_age  = .false.
  , tr_FY        = .false.
  , restart_FY   = .false.
  , tr_lvl       = .true.
  , restart_lvl  = .false.
  , tr_pond_cesm = .false.
  , restart_pond_cesm = .false.
  , tr_pond_topo = .false.
  , restart_pond_topo = .false.
  , tr_pond_lvl  = .true.
  , restart_pond_lvl  = .false.
  , tr_aero      = .false.
  , restart_aero = .false.
/

&thermo_nml
    kitd              = 1
  , ktherm            = 2
  , conduct           = 'bubbly'
  , a_rapid_mode      =  0.5e-3
  , Rac_rapid_mode    =    10.0
  , aspect_rapid_mode =     1.0
  , dSdt_slow_mode    = -1.5e-7
  , phi_c_slow_mode   =    0.05
  , phi_i_mushy       =    0.85
/

&dynamics_nml
    kdyn            = 2
  , ndte            = 120
  , revised_evp     = .true.
  , advection       = 'remap'
  , kstrength       = 1
  , krdg_partic     = 1
  , krdg_redist     = 1
  , mu_rdg          = 5
  , Cf              = 17.
/

&shortwave_nml
    shortwave       = 'dEdd'
  , albedo_type     = 'default'
  , albicev         = 0.78
  , albicei         = 0.36
  , albsnowv        = 0.98
  , albsnowi        = 0.70 
  , ahmax           = 0.3
  , R_ice           = 0.
  , R_pnd           = 0.
  , R_snw           = 1.5
  , dT_mlt          = 1.5
  , rsnw_mlt        = 1500.
  , kalg            = 0.6
/

&ponds_nml
    hp1             = 0.01
  , hs0             = 0.03
  , hs1             = 0.03
  , dpscale         = 1.e-3
  , frzpnd          = 'hlid'
  , rfracmin        = 0.15
  , rfracmax        = 1.
  , pndaspect       = 0.8
/

&zbgc_nml
    tr_brine        = .false.
  , restart_hbrine  = .false.
  , skl_bgc         = .false.
  , bgc_flux_type   = 'Jin2006'
  , restart_bgc     = .false.
  , restore_bgc     = .false.
  , bgc_data_dir    = 'unknown_bgc_data_dir'
  , sil_data_type   = 'default'
  , nit_data_type   = 'default'
  , tr_bgc_C_sk     = .false.
  , tr_bgc_chl_sk   = .false.
  , tr_bgc_Am_sk    = .false.
  , tr_bgc_Sil_sk   = .false.
  , tr_bgc_DMSPp_sk = .false.
  , tr_bgc_DMSPd_sk = .false.
  , tr_bgc_DMS_sk   = .false.
  , phi_snow        = 0.5
/

&forcing_nml
    formdrag        = .false.
  , atmbndy         = 'default'
  , fyear_init      = CICEFYEARINIT
  , ycycle          = 1000
  , atm_data_format = 'nc'
  , atm_data_type   = 'ecmwf'
  , atm_data_dir    = 'CICEATMDIR/'
  , calc_strair     = .true.
  , highfreq        = .false.
  , natmiter        = 5
  , calc_Tsfc       = .true.
  , precip_units    = 'm_per_12hr'
  , ustar_min       = 0.0005
  , fbot_xfer_type  = 'constant'
  , update_ocn_f    = .true.
  , l_mpond_fresh   = .false.
  , tfrz_option     = 'mushy'
  , oceanmixed_ice  = .false.
  , ocn_data_format = 'bin'
  , sss_data_type   = 'default'
  , sst_data_type   = 'default'
  , ocn_data_dir    = 'unknown_ocn_data_dir'
  , oceanmixed_file = 'unknown_oceanmixed_file'
  , restore_sst     = .false.
  , trestore        =  90
  , restore_ice     = .false.
/

&icefields_nml
    f_tmask        = .true.
  , f_blkmask      = .false.
  , f_tarea        = .false.
  , f_uarea        = .false.
  , f_dxt          = .false.
  , f_dyt          = .false.
  , f_dxu          = .false.
  , f_dyu          = .false.
  , f_HTN          = .false.
  , f_HTE          = .false.
  , f_ANGLE        = .true.
  , f_ANGLET       = .true.
  , f_NCAT         = .false.
  , f_VGRDi        = .false.
  , f_VGRDs        = .false.
  , f_VGRDb        = .false.
  , f_bounds       = .false.
  , f_aice         = 'd' 
  , f_hi           = 'd'
  , f_hs           = 'd' 
  , f_Tsfc         = 'x' 
  , f_sice         = 'x' 
  , f_uvel         = 'd' 
  , f_vvel         = 'd' 
  , f_uatm         = 'x' 
  , f_vatm         = 'x' 
  , f_fswdn        = 'd' 
  , f_flwdn        = 'd'
  , f_snow         = 'x' 
  , f_snow_ai      = 'x' 
  , f_rain         = 'x' 
  , f_rain_ai      = 'x' 
  , f_sst          = 'd' 
  , f_sss          = 'd' 
  , f_uocn         = 'd' 
  , f_vocn         = 'd' 
  , f_frzmlt       = 'd'
  , f_fswfac       = 'x'
  , f_fswint_ai    = 'x'
  , f_fswabs       = 'x' 
  , f_fswabs_ai    = 'x' 
  , f_albsni       = 'x' 
  , f_alvdr        = 'x'
  , f_alidr        = 'x'
  , f_alvdf        = 'x'
  , f_alidf        = 'x'
  , f_albice       = 'x'
  , f_albsno       = 'x'
  , f_albpnd       = 'x'
  , f_coszen       = 'x'
  , f_flat         = 'x' 
  , f_flat_ai      = 'x' 
  , f_fsens        = 'x' 
  , f_fsens_ai     = 'x' 
  , f_flwup        = 'x' 
  , f_flwup_ai     = 'x' 
  , f_evap         = 'x' 
  , f_evap_ai      = 'd' 
  , f_Tair         = 'x' 
  , f_Tref         = 'x' 
  , f_Qref         = 'x'
  , f_congel       = 'd' 
  , f_frazil       = 'd' 
  , f_snoice       = 'd' 
  , f_dsnow        = 'x' 
  , f_melts        = 'd'
  , f_meltt        = 'd'
  , f_meltb        = 'd'
  , f_meltl        = 'd'
  , f_fresh        = 'x'
  , f_fresh_ai     = 'd'
  , f_fsalt        = 'x'
  , f_fsalt_ai     = 'd'
  , f_fhocn        = 'x' 
  , f_fhocn_ai     = 'd' 
  , f_fswthru      = 'x' 
  , f_fswthru_ai   = 'd' 
  , f_fsurf_ai     = 'x'
  , f_fcondtop_ai  = 'x'
  , f_fmeltt_ai    = 'x' 
  , f_strairx      = 'd' 
  , f_strairy      = 'd' 
  , f_strtltx      = 'x' 
  , f_strtlty      = 'x' 
  , f_strcorx      = 'x' 
  , f_strcory      = 'x' 
  , f_strocnx      = 'd' 
  , f_strocny      = 'd' 
  , f_strintx      = 'x' 
  , f_strinty      = 'x'
  , f_strength     = 'x'
  , f_divu         = 'x'
  , f_shear        = 'x'
  , f_sig1         = 'x' 
  , f_sig2         = 'x' 
  , f_dvidtt       = 'd' 
  , f_dvidtd       = 'd' 
  , f_daidtt       = 'x'
  , f_daidtd       = 'x' 
  , f_dagedtt      = 'x'
  , f_dagedtd      = 'x' 
  , f_mlt_onset    = 'x'
  , f_frz_onset    = 'x'
  , f_hisnap       = 'x'
  , f_aisnap       = 'x'
  , f_trsig        = 'x'
  , f_icepresent   = 'x'
  , f_iage         = 'd'
  , f_FY           = 'x'
  , f_aicen        = 'x'
  , f_vicen        = 'x'
  , f_vsnon        = 'x'
  , f_keffn_top    = 'x'
  , f_Tinz         = 'x'
  , f_Sinz         = 'x'
  , f_Tsnz         = 'x'
  , f_fsurfn_ai    = 'x'
  , f_fcondtopn_ai = 'x'
  , f_fmelttn_ai   = 'x'
  , f_flatn_ai     = 'x'
  , f_fsensn_ai     = 'x'
/

&icefields_mechred_nml
    f_alvl         = 'd'
  , f_vlvl         = 'd'
  , f_ardg         = 'd'
  , f_vrdg         = 'd'
  , f_dardg1dt     = 'x'
  , f_dardg2dt     = 'x'
  , f_dvirdgdt     = 'x'
  , f_opening      = 'x'
  , f_ardgn        = 'x'
  , f_vrdgn        = 'x'
  , f_dardg1ndt    = 'x'
  , f_dardg2ndt    = 'x'
  , f_dvirdgndt    = 'x'
  , f_krdgn        = 'x'
  , f_aparticn     = 'x'
  , f_aredistn     = 'x'
  , f_vredistn     = 'x'
  , f_araftn       = 'x'
  , f_vraftn       = 'x'
/

&icefields_pond_nml
    f_apondn       = 'x'
  , f_apeffn       = 'x'
  , f_hpondn       = 'x'
  , f_apond        = 'x'
  , f_hpond        = 'x'
  , f_ipond        = 'x'
  , f_apeff        = 'x'
  , f_apond_ai     = 'x'
  , f_hpond_ai     = 'x'
  , f_ipond_ai     = 'x'
  , f_apeff_ai     = 'x'
/

&icefields_bgc_nml
    f_faero_atm    = 'x'
  , f_faero_ocn    = 'x'
  , f_aero         = 'x'
  , f_fNO          = 'x'
  , f_fNO_ai       = 'x'
  , f_fNH          = 'x'
  , f_fNH_ai       = 'x'
  , f_fN           = 'x'
  , f_fN_ai        = 'x'
  , f_fSil         = 'x'
  , f_fSil_ai      = 'x'
  , f_bgc_N_sk     = 'x'
  , f_bgc_C_sk     = 'x'
  , f_bgc_chl_sk   = 'x'
  , f_bgc_Nit_sk   = 'x'
  , f_bgc_Am_sk    = 'x'
  , f_bgc_Sil_sk   = 'x'
  , f_bgc_DMSPp_sk = 'x'
  , f_bgc_DMSPd_sk = 'x'
  , f_bgc_DMS_sk   = 'x'
  , f_bgc_Nit_ml   = 'x'
  , f_bgc_Am_ml    = 'x'
  , f_bgc_Sil_ml   = 'x'  
  , f_bgc_DMSP_ml  = 'x'
  , f_bTin         = 'x'
  , f_bphi         = 'x' 
  , f_fbri         = 'x'    
  , f_hbri         = 'x'
  , f_grownet      = 'x'
  , f_PPnet        = 'x'
/

&icefields_drag_nml
    f_drag         = 'x'
  , f_Cdn_atm      = 'x'
  , f_Cdn_ocn      = 'x'
/

  